! ============================================================================
! ============ Namelist file for REcoM Biogeochemical Model =================
! ============================================================================
! Regional Ecosystem Model (REcoM) configuration
! This file controls biogeochemical processes including:
! - Carbon, nitrogen, silicon, iron cycling
! - Phytoplankton (small phyto, diatoms, coccolithophores)
! - Zooplankton (micro, meso, krill)
! - Organic matter remineralization and sinking
! - Carbonate chemistry and air-sea CO2 fluxes
! - External nutrient inputs (dust, rivers, erosion)
! ============================================================================

! ============================================================================
! DATA SOURCES AND INPUT FILES
! ============================================================================
&nam_rsbc
fe_data_source        ='Albani'
nm_fe_data_file       ='/albedo/work/projects/p_pool_recom/input/mesh_CORE2_finaltopo_mean/DustClimMonthlyAlbani.nc'
nm_aen_data_file      ='/albedo/work/projects/p_pool_recom/input/mesh_CORE2_finaltopo_mean/AeolianNitrogenDep.nc'
nm_river_data_file    ='/albedo/work/projects/p_pool_recom/input/mesh_CORE2_finaltopo_mean/RiverineInput.nc'
nm_erosion_data_file  ='/albedo/work/projects/p_pool_recom/input/mesh_CORE2_finaltopo_mean/ErosionInput.nc'
nm_co2_data_file      ='/albedo/work/projects/p_pool_recom/input/mesh_CORE2_finaltopo_mean/MonthlyAtmCO2_gcb2024.nc'
/

! ============================================================================
! GENERAL MODEL CONFIGURATION
! ============================================================================
&parecomsetup
enable_3zoo2det = .false.    ! Enable 3 zooplankton + 2 detritus configuration
enable_coccos   = .false.   ! Enable coccolithophores (currently disabled)
enable_AWICM    = .false.   ! Enable AWICM
enable_R2OMIP   = .false.   ! Enable R2OMIP
/

! ============================================================================
! MAIN MODEL SWITCHES AND SETTINGS
! ============================================================================
! --- Core Model Settings ---
&pavariables
use_REcoM             =.true.
REcoM_restart         =.true.

bgc_num               = 22 !33 !24 !38
diags3d_num           = 28          ! Number of diagnostic 3d tracers to be saved
bgc_base_num          = 22          ! standard tracers
VDet                  = 20.d0       ! Sinking velocity, constant through the water column and positive downwards
VDet_zoo2             = 200.d0      ! Sinking velocity, constant through the water column
VPhy                  = 0.d0        !!! If the number of sinking velocities are different from 3, code needs to be changed !!!
VDia                  = 0.d0
VCocco	       	      = 0.d0       
allow_var_sinking     = .true.   
biostep               = 1           ! Number of times biology should be stepped forward for each time step		 
REcoM_Geider_limiter  = .false.     ! Decides what routine should be used to calculate limiters in sms
REcoM_Grazing_Variable_Preference = .true. ! Decides if grazing should have preference for phyN or DiaN 
Grazing_detritus      = .true.
het_resp_noredfield   = .true.    ! Decides respiratation of copepod group
diatom_mucus          = .true.    ! Decides nutrient limitation effect on aggregation
O2dep_remin           = .true.    ! O2remin Add option for O2 dependency of organic matter remineralization
use_ballasting        = .true.    
use_density_scaling   = .true.   
use_viscosity_scaling = .true.    
OmegaC_diss           = .false.   ! Use OmegaC from Mocsy to compute calcite dissolution (after Aumont et al. 2015 and Gehlen et al. 2007) -> set calc_diss_guts to zero if this is false!!!!
CO2lim                = .true.    ! CO2 dependence of growth and calcification
Diags                 = .true.
constant_CO2          = .true.
UseFeDust             = .true.      ! Turns dust input of iron off when set to.false.
UseDustClim           = .true.
UseDustClimAlbani     = .true.     ! Use Albani dustclim field (If it is false Mahowald will be used)
use_photodamage       = .true.      ! use Alvarez et al (2018) for chlorophyll degradation
HetRespFlux_plus      = .true.      !MB More stable computation of zooplankton respiration fluxes adding a small number to HetN
REcoMDataPath         = '/albedo/work/projects/p_pool_recom/input/mesh_CORE2_finaltopo_mean/'
restore_alkalinity    = .true.
useRivers             = .false.
useRivFe              = .false.      ! When set to true, riverine Fe source is activated
useErosion            = .false.
NitrogenSS            = .false.     ! When set to true, external sources and sinks of nitrogen are activated (Riverine, aeolian and denitrification)
useAeolianN           = .false.      ! When set to true, aeolian nitrogen deposition is activated
firstyearoffesomcycle = 1958        ! The first year of the actual physical forcing (e.g. JRA-55) used
lastyearoffesomcycle  = 2024        ! Last year of the actual physical forcing used
numofCO2cycles        = 1           ! Number of cycles of the forcing planned 
currentCO2cycle       = 1           ! Which CO2 cycle we are currently running
DIC_PI                = .true.
Nmocsy                = 1           ! Length of the vector that is passed to mocsy (always one for recom)
recom_debug           =.false.
ciso                  =.false.     ! Main switch to enable/disable carbon isotopes (13|14C)
benthos_num           = 4          ! number of benthic BGC tracers -> 8 if (ciso == .true.) otherwise -> 4
use_MEDUSA            = .false.      ! Main switch for the sediment model MEDUSA
sedflx_num            = 0           ! if 0: no file from MEDUSA is read but default sediment
bottflx_num           = 4           ! if ciso&ciso_14: =8; if .not.ciso_14: =6; no ciso: =4
use_atbox             = .false.
add_loopback          = .false.     ! add loopback fluxes through rivers to the surface
lb_tscale             = 1.0         ! /year: fraction of loopback fluxes yearly added to the surface
/

! ============================================================================
! SINKING VELOCITY PARAMETERS
! ============================================================================
&pasinking
Vdet_a                = 0.0288       ! Slope of the linearly increasing sinking velocity [1/day]
Vcalc                 = 0.0144       ! Depth dependence of calcite dissolution (when use_coccos disabled) [1/day]
/

! ============================================================================
! INITIAL CONDITIONS
! ============================================================================
&painitialization_N
cPhyN                 = 0.2d0        ! Initial small phytoplankton nitrogen [mmol N/m³]
cHetN                 = 0.2d0        ! Initial microzooplankton nitrogen [mmol N/m³]
cZoo2N                = 0.2d0        ! Initial mesozooplankton nitrogen [mmol N/m³]
/

! ============================================================================
! TEMPERATURE DEPENDENCE (ARRHENIUS)
! ============================================================================
&paArrhenius
recom_Tref            = 288.15d0     ! Reference temperature [K]
C2K                   = 273.15d0     ! Celsius to Kelvin conversion
Ae                    = 4500.d0      ! Arrhenius slope [K]
reminSi               = 0.02d0       ! Silicate remineralization base rate [1/day]
k_o2_remin            = 15.d0        ! Half-saturation for O2 remineralization [mmol O2/m³]
/

&palimiter_function
NMinSlope             = 50.d0 
SiMinSlope            = 1000.d0
NCmin                 = 0.04d0
NCmin_d               = 0.04d0
NCmin_c		      = 0.04d0    
SiCmin                = 0.04d0
k_Fe                  = 0.04d0
k_Fe_d                = 0.12d0
k_Fe_c		      = 0.09d0    
k_si                  = 4.d0
P_cm                  = 3.0d0       ! [1/day]            Rate of C-specific photosynthesis 
P_cm_d                = 3.5d0
P_cm_c		      = 2.8d0	  
/

! ============================================================================
! LIGHT ATTENUATION
! ============================================================================
&palight_calculations
k_w                   = 0.04d0       ! Water attenuation coefficient [1/m]
a_chl                 = 0.03d0       ! Chlorophyll-specific attenuation [1/m per mg Chl/m³]
/

! ============================================================================
! PHOTOSYNTHESIS (P-I CURVE)
! ============================================================================
&paphotosynthesis
alfa                  = 0.14d0       ! Small phyto initial P-I slope [(mmol C·m²)/(mg Chl·W·day)]
alfa_d                = 0.19d0       ! Diatom initial P-I slope
alfa_c                = 0.10d0       ! Coccolithophore initial P-I slope
parFrac               = 0.43d0       ! Fraction of shortwave that is PAR
/

! ============================================================================
! NUTRIENT ASSIMILATION
! ============================================================================
&paassimilation
V_cm_fact             = 0.7d0       ! scaling factor for temperature dependent maximum of C-specific N-uptake
V_cm_fact_d           = 0.7d0  
V_cm_fact_c	      = 0.7d0     
NMaxSlope             = 1000.d0     ! Max slope for limiting function
SiMaxSlope            = 1000.d0
NCmax                 = 0.2d0       ! [mmol N/mmol C] Maximum cell quota of nitrogen (N:C)
NCmax_d               = 0.2d0
NCmax_c		      = 0.15d0     
SiCmax                = 0.8d0
NCuptakeRatio         = 0.2d0       ! [mmol N/mmol C] Maximum uptake ratio of N:C
NCUptakeRatio_d       = 0.2d0
NCUptakeRatio_c	      = 0.2d0     
SiCUptakeRatio        = 0.2d0
k_din                 = 0.55d0      ! [mmol N/m3] Half-saturation constant for nitrate uptake
k_din_d               = 1.0d0
k_din_c		      = 0.9d0     
Chl2N_max             = 3.15d0      ! [mg CHL/mmol N] Maximum CHL a : N ratio = 0.3 gCHL gN^-1
Chl2N_max_d           = 4.2d0
Chl2N_max_c	      = 3.5d0     
res_phy               = 0.01d0      ! [1/day] Maintenance respiration rate constant
res_phy_d             = 0.01d0
res_phy_c	      = 0.01d0    
biosynth              = 2.33d0      ! [mmol C/mmol N] Cost of biosynthesis
biosynthSi            = 0.d0
/

! ============================================================================
! IRON CHEMISTRY
! ============================================================================
&pairon_chem
totalligand           = 1.d0         ! Total free ligand concentration [µmol/m³]
ligandStabConst       = 100.d0       ! Ligand-Fe stability constant [m³/µmol]
/

! ============================================================================
! MICROZOOPLANKTON (FIRST ZOOPLANKTON)
! ============================================================================
&pazooplankton
graz_max              = 0.31d0      ! [mmol N/(m3 * day)] Maximum grazing loss parameter 
epsilonr              = 0.09d0      ! [(mmol N)2 /m6] Half saturation constant for grazing loss 
res_het               = 0.028d0     ! [1/day] Respiration by heterotrophs and mortality (loss to detritus)
Redfield              = 6.625       ! [mmol C/mmol N] Redfield ratio of C:N = 106:16
loss_het              = 0.04d0      ! [1/day] Temperature dependent N degradation of extracellular organic N (EON)
pzDia                 = 1.0d0 !0.5d0       ! Maximum diatom preference
sDiaNsq               = 0.d0
pzPhy                 = 0.5d0 !0.25d0 !1.0d0       ! Maximum small phytoplankton preference (NEW: 3/12)
sPhyNsq               = 0.d0
pzCocco		      = 0.666d0     ! NEW (8/12)
sCoccoNsq             = 0.d0      
pzMicZoo              = 1.0d0       ! Maximum microzooplankton preference
sMicZooNsq            = 0.d0      
tiny_het              = 1.d-5       ! for more stable computation of HetRespFlux (_plus). Value can be > tiny because HetRespFlux ~ hetC**2.
/

! ============================================================================
! MESOZOOPLANKTON (SECOND ZOOPLANKTON)
! ============================================================================
&pasecondzooplankton
graz_max2      = 0.1d0              ! [mmol N/(m3 * day)] Maximum grazing loss parameter                                                                                        
epsilon2       = 0.0144d0           ! [(mmol N)2 /m6] Half saturation constant for grazing loss                                                                              
res_zoo2       = 0.0107d0           ! [1/day] Respiration by heterotrophs and mortality (loss to detritus)                                                            
loss_zoo2      = 0.003d0            ! [1/day] Temperature dependent N degradation of extracellular organic N (EON)
fecal_rate_n      = 0.104d0         ! [1/day] Temperature dependent N degradation of \
fecal_rate_c      = 0.236d0  
fecal_rate_n_mes = 0.25d0           
fecal_rate_c_mes = 0.32d0         
pzDia2         = 1.5d0 !1.d0        ! Maximum diatom preference                                                                                                                 
sDiaNsq2       = 0.d0
pzPhy2         = 0.5d0              ! Maximum small phytoplankton preference                                                                                                                
sPhyNsq2       = 0.d0
pzCocco2       = 0.5d0              
sCoccoNsq2     = 0.d0		 
pzHet          = 1.5d0              ! Maximum mesozooplankton preference 
sHetNsq        = 0.d0
t1_zoo2        = 28145.d0           ! Krill temp. function constant1                                                                                                       
t2_zoo2        = 272.5d0            ! Krill temp. function constant2                                                                                                         
t3_zoo2        = 105234.d0          ! Krill temp. function constant3                                                                                                      
t4_zoo2        = 274.15d0           ! Krill temp. function constant3
/

! ============================================================================
! MICROZOOPLANKTON (THIRD ZOOPLANKTON)
! ============================================================================
&pathirdzooplankton
graz_max3             = 0.46d0       ! Maximum grazing rate [1/day]
epsilon3              = 0.64d0       ! Half-saturation constant [(mmol N)²/m⁶]
loss_miczoo           = 0.01d0       ! Extracellular N degradation [1/day]
res_miczoo            = 0.02d0       ! Respiration + mortality [1/day]

! --- Grazing Preferences ---
pzDia3                = 0.04d0       ! Diatom preference
sDiaNsq3              = 0.d0         ! Diatom preference slope
pzPhy3                = 0.07d0       ! Small phyto preference
sPhyNsq3              = 0.d0         ! Small phyto preference slope
pzCocco3              = 0.7d0        ! Coccolithophore preference (unused)
sCoccoNsq3            = 0.d0         ! Coccolithophore preference slope
/

! ============================================================================
! GRAZING ON DETRITUS
! ============================================================================
&pagrazingdetritus
! --- First Zooplankton (Microzooplankton) ---
pzDet                 = 0.5d0        ! Small detritus preference
sDetNsq               = 0.d0         ! Small detritus preference slope
pzDetZ2               = 0.5d0        ! Large detritus preference
sDetZ2Nsq             = 0.d0         ! Large detritus preference slope

! --- Second Zooplankton (Mesozooplankton) ---
pzDet2                = 0.5d0        ! Small detritus preference
sDetNsq2              = 0.d0         ! Small detritus preference slope
pzDetZ22              = 0.5d0        ! Large detritus preference
sDetZ2Nsq2            = 0.d0         ! Large detritus preference slope
/

! ============================================================================
! AGGREGATION
! ============================================================================
&paaggregation
agg_PD                = 0.165d0      ! Detritus aggregation rate [m³/(mmol N·day)]
agg_PP                = 0.015d0      ! Plankton aggregation rate [m³/(mmol N·day)]
/

! ============================================================================
! DISSOLVED ORGANIC MATTER REMINERALIZATION
! ============================================================================
&padin_rho_N
rho_N                 = 0.11d0       ! DON remineralization rate [1/day]
rho_Nt                = 0.67d0       ! [1/day] terrestrial N degradation of extracellular organic N (DONt) (Remineralization of terrestrial DON) ~ scale of 1.5 years ! R2OMIP
/

&padic_rho_C1
rho_C1                = 0.1d0        ! DOC remineralization rate [1/day]
rho_C1t               = 0.0018d0     !terrestrial C degradation of extracellular organic C (EOC)
/

! ============================================================================
! PHYTOPLANKTON LOSSES
! ============================================================================
&paphytoplankton_N
lossN                 = 0.05d0       ! Small phyto N loss rate [1/day]
lossN_d               = 0.05d0       ! Diatom N loss rate [1/day]
lossN_c               = 0.05d0       ! Coccolithophore N loss rate [1/day]
/

&paphytoplankton_C
lossC                 = 0.10d0       ! Small phyto C loss rate [1/day]
lossC_d               = 0.10d0       ! Diatom C loss rate [1/day]
lossC_c               = 0.10d0       ! Coccolithophore C loss rate [1/day]
/

&paphytoplankton_ChlA
deg_Chl               = 0.25d0 !0.2d0 !0.25d0       ! Small phyto Chl degradation [1/day]
deg_Chl_d             = 0.15d0 !0.2d0 !0.15d0       ! Diatom Chl degradation [1/day]
deg_Chl_c             = 0.2d0                       ! Coccolithophore Chl degradation [1/day]
/

! ============================================================================
! DETRITUS REMINERALIZATION
! ============================================================================
&padetritus_N
gfin                  = 0.3d0        ! First zooplankton grazing efficiency
grazEff2              = 0.8d0        ! Second zooplankton grazing efficiency
grazEff3              = 0.8d0        ! Third zooplankton grazing efficiency
reminN                = 0.165d0      ! Detritus N remineralization rate [1/day]
/

&padetritus_C
reminC                = 0.15d0       ! Detritus C remineralization rate [1/day]
rho_c2                = 0.1d0        ! TEP-C degradation rate [1/day]
/

! ============================================================================
! ZOOPLANKTON LOSSES
! ============================================================================
&paheterotrophs
lossN_z               = 0.1d0        ! First zooplankton N loss [1/day]
lossC_z               = 0.1d0        ! First zooplankton C loss [1/day]
/

&paseczooloss
lossN_z2              = 0.02d0       ! Second zooplankton N loss [1/day]
lossC_z2              = 0.02d0       ! Second zooplankton C loss [1/day]
/

&pathirdzooloss
lossN_z3              = 0.05d0       ! Third zooplankton N loss [1/day]
lossC_z3              = 0.05d0       ! Third zooplankton C loss [1/day]
/

! ============================================================================
! CO2 LIMITATION PARAMETERS
! ============================================================================
&paco2lim                 
Cunits                = 976.5625     ! Unit conversion factor: mol/m³ → µmol/kg

! --- Small Phytoplankton ---
a_co2_phy             = 1.162e+00    ! Dimensionless
b_co2_phy             = 4.888e+01    ! [mol/kg]
c_co2_phy             = 2.255e-01    ! [kg/mol]
d_co2_phy             = 1.023e+07    ! [kg/mol]

! --- Diatoms ---
a_co2_dia             = 1.040e+00    ! Dimensionless
b_co2_dia             = 2.890e+01    ! [mol/kg]
c_co2_dia             = 8.778e-01    ! [kg/mol]
d_co2_dia             = 2.640e+06    ! [kg/mol]

! --- Coccolithophores ---
a_co2_cocco           = 1.109e+00    ! Dimensionless (growth)
b_co2_cocco           = 3.767e+01    ! [mol/kg] (growth)
c_co2_cocco           = 3.912e-01    ! [kg/mol] (growth)
d_co2_cocco           = 9.450e+06    ! [kg/mol] (growth)

a_co2_calc            = 1.102e+00    ! Dimensionless (calcification)
b_co2_calc            = 4.238e+01    ! [mol/kg] (calcification)
c_co2_calc            = 7.079e-01    ! [kg/mol] (calcification)
d_co2_calc            = 1.343e+07    ! [kg/mol] (calcification)
/

&pairon
Fe2N                  = 0.033d0      ! Iron to nitrogen ratio (= Fe2C × 6.625)
Fe2N_benthos          = 0.15d0       ! Benthic flux ratio [micromol Fe : mmol N,]
kScavFe               = 0.07d0       ! Iron scavenging rate [1/day]
dust_sol              = 0.02d0       ! Dust iron solubility fraction
RiverFeConc           = 100          ! Riverine iron concentration [µmol/m³]
/

! ============================================================================
! CALCITE PRODUCTION AND DISSOLUTION
! ============================================================================
&pacalc
calc_prod_ratio       = 0.02         ! Calcite production ratio (CaCO₃:POC)
calc_diss_guts        = 0.0d0 !0.5d0       ! Gut dissolution fraction (set to 0 if OmegaC_diss=.false.)
calc_diss_rate        = 0.005714d0   ! Standard dissolution rate [1/day] = 20/3500
calc_diss_rate2       = 0.005714d0   ! Standard dissolution rate [1/day]
calc_diss_omegac      = 0.197d0      ! Critical Ω_calcite (Aumont et al. 2015)
calc_diss_exp         = 1.d0         ! Dissolution rate exponent
/

! ============================================================================
! BENTHIC PROCESSES
! ============================================================================
&pabenthos_decay_rate
decayRateBenN         = 0.005d0      ! Benthic N decay rate [1/day]
decayRateBenC         = 0.005d0      ! Benthic C decay rate [1/day]
decayRateBenSi        = 0.005d0      ! Benthic Si decay rate [1/day]
q_NC_Denit            = 0.86d0       ! N:C quota for denitrification
/

! ============================================================================
! AIR-SEA CO2 FLUX
! ============================================================================
&paco2_flux_param
permil                = 0.000000976  ! DIC conversion: mmol/m³ → mol/kg (1e-3/1024.5)
permeg                = 1.e-6        ! Pressure conversion: µatm → atm
!X1                    = exp(-5.d0*log(10.d0))       ! Lowest ph-value = 7.7 (phlo)
!X2                    = exp(-9.d0*log(10.d0))       ! Highest ph-value = 9.5 (phhi)
Xacc                  = 1.e-12       ! pH iteration accuracy
CO2_for_spinup        = 278.d0       ! Pre-industrial atmospheric pCO₂ [µatm]
/

! ============================================================================
! ALKALINITY RESTORING
! ============================================================================
&paalkalinity_restoring
surf_relax_Alk        = 3.2e-07      ! Surface alkalinity relaxation [1/s] = 10 days⁻¹
/

! ============================================================================
! BALLASTING AND DENSITY-DEPENDENT SINKING
! ============================================================================
&paballasting
! --- Particle Densities [kg/m³] ---
rho_POC               = 1033.d0      ! POC density
rho_PON               = 1033.d0      ! PON density
rho_CaCO3             = 2830.d0      ! Calcite density
rho_opal              = 2090.d0      ! Biogenic opal density
rho_ref_part          = 1230.d0      ! Reference particle density
rho_ref_water         = 1027.d0      ! Reference seawater density

! --- Viscosity and Sinking ---
visc_ref_water        = 0.00158d0    ! Reference seawater viscosity [kg·m⁻¹·s⁻¹] at 4°C
w_ref1                = 10.d0        ! Reference sinking velocity, small detritus [m/day]
w_ref2                = 200.d0       ! Reference sinking velocity, large detritus [m/day]
depth_scaling1        = 0.01d0       ! Depth-dependent increase sinking speed of det1 [1/day]
depth_scaling2        = 0.d0         ! Depth-dependent increase sinking speed of det2 [1/day]
max_sinking_velocity  = 250.d0       ! Maximum sinking velocity [m/day] (numerical stability)
/

! ============================================================================
! CARBON ISOTOPES (¹³C AND ¹⁴C)
! ============================================================================
&paciso
ciso_init             = .false.      ! Initialize with fractionated organic matter
ciso_14               = .false.      ! Include inorganic radiocarbon (¹⁴C-DIC)
ciso_organic_14       = .false.      ! Include organic radiocarbon (¹⁴C-POC/DOC)
lambda_14             = 3.8561e-12   ! ¹⁴C decay constant [s⁻¹] (5730 yr half-life)
delta_CO2_13          = -6.61        ! Atmospheric δ¹³C [‰] (global mean)

! --- Atmospheric Δ¹⁴C
big_delta_CO2_14(1)  = 0. ! atmospheric D14C (permil), northern hemisphere polewards of 30°N
big_delta_CO2_14(2)  = 0. ! atmospheric D14C (permil), (sub) tropical zone 30°N - 30°S
big_delta_CO2_14(3)  = 0. ! atmospheric D14C (permil), southern hemisphere polewards of 30°S
atbox_spinup         = .false.
cosmic_14_init       = 2.0
/
