&env_nml                    ! In the original release these variables are defined in the icepack.settings
    nicecat   = 5           ! number of ice thickness categories
    nfsdcat   = 1           ! number of floe size categories
    nicelyr   = 4           ! number of vertical layers in the ice
    nsnwlyr   = 4           ! number of vertical layers in the snow
    ntraero   = 0           ! number of aerosol tracers (up to max_aero in ice_domain_size.F90)
    trzaero   = 0           ! number of z aerosol tracers (up to max_aero = 6)
    tralg     = 0           ! number of algal tracers (up to max_algae = 3)
    trdoc     = 0           ! number of dissolve organic carbon (up to max_doc = 3)
    trdic     = 0           ! number of dissolve inorganic carbon (up to max_dic = 1)
    trdon     = 0           ! number of dissolve organic nitrogen (up to max_don = 1)
    trfed     = 0           ! number of dissolved iron tracers (up to max_fe  = 2)
    trfep     = 0           ! number of particulate iron tracers (up to max_fe  = 2)
    nbgclyr   = 0           ! number of zbgc layers
    trbgcz    = 0           ! set to 1 for zbgc tracers (needs TRBGCS = 0 and TRBRI = 1)
    trzs      = 0           ! set to 1 for zsalinity tracer (needs TRBRI = 1)
    trbri     = 0           ! set to 1 for brine height tracer
    trage     = 0           ! set to 1 for ice age tracer
    trfy      = 0           ! set to 1 for first-year ice area tracer
    trlvl     = 0           ! set to 1 for level and deformed ice tracers
    trpnd     = 0           ! set to 1 for melt pond tracers
    trbgcs    = 0           ! set to 1 for skeletal layer tracers (needs TRBGCZ = 0)
/

&grid_nml
    kcatbound    = 1
/

&tracer_nml
    tr_iage      = .false.
    tr_FY        = .false.
    tr_lvl       = .true.
    tr_pond_cesm = .false.
    tr_pond_topo = .false.
    tr_pond_lvl  = .true.
    tr_aero      = .false.
    tr_fsd       = .false.
/

&thermo_nml
    kitd              = 1
    ktherm            = 2
    conduct           = 'bubbly'
    a_rapid_mode      =  0.5e-3
    Rac_rapid_mode    =    10.0
    aspect_rapid_mode =     1.0
    dSdt_slow_mode    = -5.0e-8
    phi_c_slow_mode   =    0.05
    phi_i_mushy       =    0.85
/

&shortwave_nml
    shortwave       = 'dEdd'
    albedo_type     = 'ccsm3'
    albicev         = 0.78
    albicei         = 0.36
    albsnowv        = 0.98
    albsnowi        = 0.70
    ahmax           = 0.3
    R_ice           = 0.
    R_pnd           = 0.
    R_snw           = 1.5
    dT_mlt          = 1.5
    rsnw_mlt        = 1500.
    kalg            = 0.6
/

&ponds_nml
    hp1             = 0.01
    hs0             = 0.
    hs1             = 0.03
    dpscale         = 1.e-3
    frzpnd          = 'hlid'
    rfracmin        = 0.15
    rfracmax        = 1.
    pndaspect       = 0.8
/

&forcing_nml
    formdrag        = .false.
    atmbndy         = 'default'
    calc_strair     = .true.
    calc_Tsfc       = .true.
    highfreq        = .false.
    natmiter        = 5
    ustar_min       = 0.0005
    emissivity      = 0.95
    fbot_xfer_type  = 'constant'
    update_ocn_f    = .false.
    l_mpond_fresh   = .false.
    tfrz_option     = 'mushy'
    oceanmixed_ice  = .true.
    wave_spec_type  = 'none'
    restore_ocn     = .false.
    trestore        = 90
    precip_units    = 'mks'
    default_season  = 'spring'
    atm_data_type   = 'clim'
    ocn_data_type   = 'SHEBA'
    bgc_data_type   = 'default'
    fyear_init      = 2015
    ycycle          = 1
    data_dir        = '/Users/ftuser/Desktop/CICE-Consortium/ICEPACK_DATA/'
    atm_data_file   = 'unknown_atm_data_file'
    ocn_data_file   = 'unknown_ocn_data_file'
    bgc_data_file   = 'unknown_bgc_data_file'
    ice_data_file   = 'open_clos_lindsay.dat'
    atm_data_format = 'bin'
    ocn_data_format = 'bin'
    bgc_data_format = 'bin'
/

&dynamics_nml
    kstrength       = 1
    krdg_partic     = 1
    krdg_redist     = 1
    mu_rdg          = 3
    Cf              = 17.
/

&zbgc_nml
    tr_brine        = .false.
    tr_zaero        = .false.
    modal_aero      = .false.
    skl_bgc         = .false.
    z_tracers       = .false.
    dEdd_algae      = .false.
    solve_zbgc      = .false.
    bgc_flux_type   = 'Jin2006'
    restore_bgc     = .false.
    scale_bgc       = .false.
    solve_zsal      = .false.
    tr_bgc_Nit      = .false.
    tr_bgc_C        = .false.
    tr_bgc_chl      = .false.
    tr_bgc_Am       = .false.
    tr_bgc_Sil      = .false.
    tr_bgc_DMS      = .false.
    tr_bgc_PON      = .false.
    tr_bgc_hum      = .false.
    tr_bgc_DON      = .false.
    tr_bgc_Fe       = .false.
    grid_o          = 0.006
    l_sk            = 0.024
    grid_oS         = 0.0
    l_skS           = 0.028
    phi_snow        = -0.3
    initbio_frac    = 0.8
    frazil_scav     = 0.8
    ratio_Si2N_diatoms = 1.8
    ratio_Si2N_sp      = 0.0
    ratio_Si2N_phaeo   = 0.0
    ratio_S2N_diatoms  = 0.03
    ratio_S2N_sp       = 0.03
    ratio_S2N_phaeo    = 0.03
    ratio_Fe2C_diatoms = 0.0033
    ratio_Fe2C_sp      = 0.0033
    ratio_Fe2C_phaeo   = 0.1
    ratio_Fe2N_diatoms = 0.023
    ratio_Fe2N_sp      = 0.023
    ratio_Fe2N_phaeo   = 0.7
    ratio_Fe2DON       = 0.023
    ratio_Fe2DOC_s     = 0.1
    ratio_Fe2DOC_l     = 0.033
    fr_resp            = 0.05
    tau_min            = 5200.0
    tau_max            = 173000.0
    algal_vel          = 0.0000000111
    R_dFe2dust         = 0.035
    dustFe_sol         = 0.005
    chlabs_diatoms     = 0.03
    chlabs_sp          = 0.01
    chlabs_phaeo       = 0.05
    alpha2max_low_diatoms = 0.8
    alpha2max_low_sp      = 0.67
    alpha2max_low_phaeo   = 0.67
    beta2max_diatoms   = 0.018
    beta2max_sp        = 0.0025
    beta2max_phaeo     = 0.01
    mu_max_diatoms     = 1.44
    mu_max_sp          = 0.851
    mu_max_phaeo       = 0.851
    grow_Tdep_diatoms  = 0.06
    grow_Tdep_sp       = 0.06
    grow_Tdep_phaeo    = 0.06
    fr_graze_diatoms   = 0.0
    fr_graze_sp        = 0.1
    fr_graze_phaeo     = 0.1
    mort_pre_diatoms   = 0.007
    mort_pre_sp        = 0.007
    mort_pre_phaeo     = 0.007
    mort_Tdep_diatoms  = 0.03
    mort_Tdep_sp       = 0.03
    mort_Tdep_phaeo    = 0.03
    k_exude_diatoms    = 0.0
    k_exude_sp         = 0.0
    k_exude_phaeo      = 0.0
    K_Nit_diatoms      = 1.0
    K_Nit_sp           = 1.0
    K_Nit_phaeo        = 1.0
    K_Am_diatoms       = 0.3
    K_Am_sp            = 0.3
    K_Am_phaeo         = 0.3
    K_Sil_diatoms      = 4.0
    K_Sil_sp           = 0.0
    K_Sil_phaeo        = 0.0
    K_Fe_diatoms       = 1.0
    K_Fe_sp            = 0.2
    K_Fe_phaeo         = 0.1
    f_don_protein      = 0.6
    kn_bac_protein     = 0.03
    f_don_Am_protein   = 0.25
    f_doc_s            = 0.4
    f_doc_l            = 0.4
    f_exude_s          = 1.0
    f_exude_l          = 1.0
    k_bac_s            = 0.03
    k_bac_l            = 0.03
    T_max              = 0.0
    fsal               = 1.0
    op_dep_min         = 0.1
    fr_graze_s         = 0.5
    fr_graze_e         = 0.5
    fr_mort2min        = 0.5
    fr_dFe             = 0.3
    k_nitrif           = 0.0
    t_iron_conv        = 3065.0
    max_loss           = 0.9
    max_dfe_doc1       = 0.2
    fr_resp_s          = 0.75
    y_sk_DMS           = 0.5
    t_sk_conv          = 3.0
    t_sk_ox            = 10.0
    algaltype_diatoms  = 0.0
    algaltype_sp       = 0.5
    algaltype_phaeo    = 0.5
    nitratetype        = -1.0
    ammoniumtype       = 1.0
    silicatetype       = -1.0
    dmspptype          = 0.5
    dmspdtype          = -1.0
    humtype            = 1.0
    doctype_s          = 0.5
    doctype_l          = 0.5
    dontype_protein    = 0.5
    fedtype_1          = 0.5
    feptype_1          = 0.5
    zaerotype_bc1      = 1.0
    zaerotype_bc2      = 1.0
    zaerotype_dust1    = 1.0
    zaerotype_dust2    = 1.0
    zaerotype_dust3    = 1.0
    zaerotype_dust4    = 1.0
    ratio_C2N_diatoms  = 7.0
    ratio_C2N_sp       = 7.0
    ratio_C2N_phaeo    = 7.0
    ratio_chl2N_diatoms= 2.1
    ratio_chl2N_sp     = 1.1
    ratio_chl2N_phaeo  = 0.84
    F_abs_chl_diatoms  = 2.0
    F_abs_chl_sp       = 4.0
    F_abs_chl_phaeo    = 5.0
    ratio_C2N_proteins = 7.0
/


