!-----------------------------------------------------------------------
! nam_ic       -> filenames to read the initial conditions
!-----------------------------------------------------------------------
&nam_ic
   filelist = 'T_January.nc','S_January.nc'
   varlist  = 't0112an1', 's0112an1'
/
